https://github.com/XiaoyuanGao/LDFSI-Shawn
https://github.com/DualSPHysics/DualSPHysics


D:\temp\Practice\SPH\Gitme